!-Generator IDFEditor 1.55
!-Option SortedOrder

!-NOTE: All comments with '!-' are ignored by the IDFEditor and are generated automatically.
!-      Use '!' comments if they need to be retained when using the IDFEditor.


!-   ===========  ALL OBJECTS IN CLASS: VERSION ===========

Version,
    25.1;                    !- Version Identifier


!-   ===========  ALL OBJECTS IN CLASS: SIMULATIONCONTROL ===========

SimulationControl,
    No,                      !- Do Zone Sizing Calculation
    No,                      !- Do System Sizing Calculation
    No,                      !- Do Plant Sizing Calculation
    Yes,                     !- Run Simulation for Sizing Periods
    Yes,                     !- Run Simulation for Weather File Run Periods
    ,                        !- Do HVAC Sizing Simulation for Sizing Periods
    ;                        !- Maximum Number of HVAC Sizing Simulation Passes


!-   ===========  ALL OBJECTS IN CLASS: BUILDING ===========

Building,
    Building 1,              !- Name
    ,                        !- North Axis {deg}
    ,                        !- Terrain
    ,                        !- Loads Convergence Tolerance Value {W}
    ,                        !- Temperature Convergence Tolerance Value {deltaC}
    ,                        !- Solar Distribution
    ,                        !- Maximum Number of Warmup Days
    ;                        !- Minimum Number of Warmup Days


!-   ===========  ALL OBJECTS IN CLASS: SHADOWCALCULATION ===========

ShadowCalculation,
    PolygonClipping,         !- Shading Calculation Method
    Periodic,                !- Shading Calculation Update Frequency Method
    20,                      !- Shading Calculation Update Frequency
    15000,                   !- Maximum Figures in Shadow Overlap Calculations
    SutherlandHodgman,       !- Polygon Clipping Algorithm
    512,                     !- Pixel Counting Resolution
    SimpleSkyDiffuseModeling,!- Sky Diffuse Modeling Algorithm
    No,                      !- Output External Shading Calculation Results
    No,                      !- Disable Self-Shading Within Shading Zone Groups
    No;                      !- Disable Self-Shading From Shading Zone Groups to Other Zones


!-   ===========  ALL OBJECTS IN CLASS: HEATBALANCEALGORITHM ===========

HeatBalanceAlgorithm,
    ConductionTransferFunction,  !- Algorithm
    200;                     !- Surface Temperature Upper Limit {C}


!-   ===========  ALL OBJECTS IN CLASS: TIMESTEP ===========

Timestep,
    4;                       !- Number of Timesteps per Hour


!-   ===========  ALL OBJECTS IN CLASS: SITE:LOCATION ===========

Site:Location,
    Lampang.Agromet,         !- Name
    18.325,                  !- Latitude {deg}
    99.3014,                 !- Longitude {deg}
    7,                       !- Time Zone {hr}
    319,                     !- Elevation {m}
    No;                      !- Keep Site Location Information


!-   ===========  ALL OBJECTS IN CLASS: RUNPERIOD ===========

RunPeriod,
    Run Period 1,            !- Name
    1,                       !- Begin Month
    1,                       !- Begin Day of Month
    2023,                    !- Begin Year
    12,                      !- End Month
    31,                      !- End Day of Month
    2023,                    !- End Year
    Sunday,                  !- Day of Week for Start Day
    No,                      !- Use Weather File Holidays and Special Days
    No,                      !- Use Weather File Daylight Saving Period
    No,                      !- Apply Weekend Holiday Rule
    Yes,                     !- Use Weather File Rain Indicators
    Yes;                     !- Use Weather File Snow Indicators


!-   ===========  ALL OBJECTS IN CLASS: SITE:GROUNDTEMPERATURE:BUILDINGSURFACE ===========

Site:GroundTemperature:BuildingSurface,
    30.0,                    !- January Ground Temperature {C}
    30.0,                    !- February Ground Temperature {C}
    30.0,                    !- March Ground Temperature {C}
    30.0,                    !- April Ground Temperature {C}
    30.0,                    !- May Ground Temperature {C}
    30.0,                    !- June Ground Temperature {C}
    30.0,                    !- July Ground Temperature {C}
    30.0,                    !- August Ground Temperature {C}
    30.0,                    !- September Ground Temperature {C}
    30.0,                    !- October Ground Temperature {C}
    30.0,                    !- November Ground Temperature {C}
    30.0;                    !- December Ground Temperature {C}


!-   ===========  ALL OBJECTS IN CLASS: SCHEDULETYPELIMITS ===========

ScheduleTypeLimits,
    Fraction,                !- Name
    0.0,                     !- Lower Limit Value
    1,                       !- Upper Limit Value
    CONTINUOUS;              !- Numeric Type

ScheduleTypeLimits,
    ActivityLevel 2,         !- Name
    0.0,                     !- Lower Limit Value
    ,                        !- Upper Limit Value
    Continuous,              !- Numeric Type
    activitylevel;           !- Unit Type

ScheduleTypeLimits,
    Zone_Library_7117 Thermostat Schedule Type Limits,  !- Name
    0.0,                     !- Lower Limit Value
    4,                       !- Upper Limit Value
    DISCRETE;                !- Numeric Type

ScheduleTypeLimits,
    Temperature 22,          !- Name
    ,                        !- Lower Limit Value
    ,                        !- Upper Limit Value
    Continuous,              !- Numeric Type
    temperature;             !- Unit Type

ScheduleTypeLimits,
    Temperature 21,          !- Name
    ,                        !- Lower Limit Value
    ,                        !- Upper Limit Value
    Continuous,              !- Numeric Type
    temperature;             !- Unit Type

ScheduleTypeLimits,
    ActivityLevel,           !- Name
    0.0,                     !- Lower Limit Value
    ,                        !- Upper Limit Value
    Continuous,              !- Numeric Type
    activitylevel;           !- Unit Type

ScheduleTypeLimits,
    Zone_ClosedOffice_7118 Thermostat Schedule Type Limits,  !- Name
    0.0,                     !- Lower Limit Value
    4,                       !- Upper Limit Value
    DISCRETE;                !- Numeric Type

ScheduleTypeLimits,
    Temperature 36,          !- Name
    ,                        !- Lower Limit Value
    ,                        !- Upper Limit Value
    Continuous,              !- Numeric Type
    temperature;             !- Unit Type

ScheduleTypeLimits,
    Temperature 37,          !- Name
    ,                        !- Lower Limit Value
    ,                        !- Upper Limit Value
    Continuous,              !- Numeric Type
    temperature;             !- Unit Type

ScheduleTypeLimits,
    Zone_ClosedOffice_7120 Thermostat Schedule Type Limits,  !- Name
    0.0,                     !- Lower Limit Value
    4,                       !- Upper Limit Value
    DISCRETE;                !- Numeric Type

ScheduleTypeLimits,
    Zone_Elec/MechRoom_7122 Thermostat Schedule Type Limits,  !- Name
    0.0,                     !- Lower Limit Value
    4,                       !- Upper Limit Value
    DISCRETE;                !- Numeric Type

ScheduleTypeLimits,
    Zone_ClosedOffice_7110 Thermostat Schedule Type Limits,  !- Name
    0.0,                     !- Lower Limit Value
    4,                       !- Upper Limit Value
    DISCRETE;                !- Numeric Type

ScheduleTypeLimits,
    Zone_ClosedOffice_7108 Thermostat Schedule Type Limits,  !- Name
    0.0,                     !- Lower Limit Value
    4,                       !- Upper Limit Value
    DISCRETE;                !- Numeric Type

ScheduleTypeLimits,
    Zone_Auditorium_7103 Thermostat Schedule Type Limits,  !- Name
    0.0,                     !- Lower Limit Value
    4,                       !- Upper Limit Value
    DISCRETE;                !- Numeric Type

ScheduleTypeLimits,
    Zone_Auditorium_7102 Thermostat Schedule Type Limits,  !- Name
    0.0,                     !- Lower Limit Value
    4,                       !- Upper Limit Value
    DISCRETE;                !- Numeric Type

ScheduleTypeLimits,
    Zone_Auditorium_7104 Thermostat Schedule Type Limits,  !- Name
    0.0,                     !- Lower Limit Value
    4,                       !- Upper Limit Value
    DISCRETE;                !- Numeric Type

ScheduleTypeLimits,
    Zone_Storage_7104_Pantry Thermostat Schedule Type Limits,  !- Name
    0.0,                     !- Lower Limit Value
    4,                       !- Upper Limit Value
    DISCRETE;                !- Numeric Type

ScheduleTypeLimits,
    Zone_Classroom_7201 Thermostat Schedule Type Limits,  !- Name
    0.0,                     !- Lower Limit Value
    4,                       !- Upper Limit Value
    DISCRETE;                !- Numeric Type

ScheduleTypeLimits,
    Zone_Classroom_7202 Thermostat Schedule Type Limits,  !- Name
    0.0,                     !- Lower Limit Value
    4,                       !- Upper Limit Value
    DISCRETE;                !- Numeric Type

ScheduleTypeLimits,
    Zone_Classroom_7203 Thermostat Schedule Type Limits,  !- Name
    0.0,                     !- Lower Limit Value
    4,                       !- Upper Limit Value
    DISCRETE;                !- Numeric Type

ScheduleTypeLimits,
    Zone_Classroom_7204 Thermostat Schedule Type Limits,  !- Name
    0.0,                     !- Lower Limit Value
    4,                       !- Upper Limit Value
    DISCRETE;                !- Numeric Type

ScheduleTypeLimits,
    Zone_Classroom_7205 Thermostat Schedule Type Limits,  !- Name
    0.0,                     !- Lower Limit Value
    4,                       !- Upper Limit Value
    DISCRETE;                !- Numeric Type

ScheduleTypeLimits,
    Zone_Classroom_7210 Thermostat Schedule Type Limits,  !- Name
    0.0,                     !- Lower Limit Value
    4,                       !- Upper Limit Value
    DISCRETE;                !- Numeric Type

ScheduleTypeLimits,
    Zone_Office_7211 Thermostat Schedule Type Limits,  !- Name
    0.0,                     !- Lower Limit Value
    4,                       !- Upper Limit Value
    DISCRETE;                !- Numeric Type

ScheduleTypeLimits,
    Zone_Office_7212 Thermostat Schedule Type Limits,  !- Name
    0.0,                     !- Lower Limit Value
    4,                       !- Upper Limit Value
    DISCRETE;                !- Numeric Type

ScheduleTypeLimits,
    Zone_Office_7301 Thermostat Schedule Type Limits,  !- Name
    0.0,                     !- Lower Limit Value
    4,                       !- Upper Limit Value
    DISCRETE;                !- Numeric Type

ScheduleTypeLimits,
    Zone_Office_7316 Thermostat Schedule Type Limits,  !- Name
    0.0,                     !- Lower Limit Value
    4,                       !- Upper Limit Value
    DISCRETE;                !- Numeric Type

ScheduleTypeLimits,
    Zone_Classroom_7302 Thermostat Schedule Type Limits,  !- Name
    0.0,                     !- Lower Limit Value
    4,                       !- Upper Limit Value
    DISCRETE;                !- Numeric Type

ScheduleTypeLimits,
    Zone_Classroom_7303 Thermostat Schedule Type Limits,  !- Name
    0.0,                     !- Lower Limit Value
    4,                       !- Upper Limit Value
    DISCRETE;                !- Numeric Type

ScheduleTypeLimits,
    Zone_Classroom_7315 Thermostat Schedule Type Limits,  !- Name
    0.0,                     !- Lower Limit Value
    4,                       !- Upper Limit Value
    DISCRETE;                !- Numeric Type

ScheduleTypeLimits,
    Zone_Classroom_7314 Thermostat Schedule Type Limits,  !- Name
    0.0,                     !- Lower Limit Value
    4,                       !- Upper Limit Value
    DISCRETE;                !- Numeric Type

ScheduleTypeLimits,
    Zone_Classroom_7308 Thermostat Schedule Type Limits,  !- Name
    0.0,                     !- Lower Limit Value
    4,                       !- Upper Limit Value
    DISCRETE;                !- Numeric Type

ScheduleTypeLimits,
    Zone_Classroom_7309 Thermostat Schedule Type Limits,  !- Name
    0.0,                     !- Lower Limit Value
    4,                       !- Upper Limit Value
    DISCRETE;                !- Numeric Type

ScheduleTypeLimits,
    Zone_Classroom_7310 Thermostat Schedule Type Limits,  !- Name
    0.0,                     !- Lower Limit Value
    4,                       !- Upper Limit Value
    DISCRETE;                !- Numeric Type

ScheduleTypeLimits,
    Zone_Classroom_7313 Thermostat Schedule Type Limits,  !- Name
    0.0,                     !- Lower Limit Value
    4,                       !- Upper Limit Value
    DISCRETE;                !- Numeric Type

ScheduleTypeLimits,
    Zone_Classroom_7312 Thermostat Schedule Type Limits,  !- Name
    0.0,                     !- Lower Limit Value
    4,                       !- Upper Limit Value
    DISCRETE;                !- Numeric Type

ScheduleTypeLimits,
    Zone_Classroom_7311 Thermostat Schedule Type Limits,  !- Name
    0.0,                     !- Lower Limit Value
    4,                       !- Upper Limit Value
    DISCRETE;                !- Numeric Type

ScheduleTypeLimits,
    Zone_Classroom_7401 Thermostat Schedule Type Limits,  !- Name
    0.0,                     !- Lower Limit Value
    4,                       !- Upper Limit Value
    DISCRETE;                !- Numeric Type

ScheduleTypeLimits,
    Zone_Classroom_7402 Thermostat Schedule Type Limits,  !- Name
    0.0,                     !- Lower Limit Value
    4,                       !- Upper Limit Value
    DISCRETE;                !- Numeric Type

ScheduleTypeLimits,
    Zone_Classroom_7405 Thermostat Schedule Type Limits,  !- Name
    0.0,                     !- Lower Limit Value
    4,                       !- Upper Limit Value
    DISCRETE;                !- Numeric Type

ScheduleTypeLimits,
    Zone_Classroom_7423 Thermostat Schedule Type Limits,  !- Name
    0.0,                     !- Lower Limit Value
    4,                       !- Upper Limit Value
    DISCRETE;                !- Numeric Type

ScheduleTypeLimits,
    Zone_Classroom_7422 Thermostat Schedule Type Limits,  !- Name
    0.0,                     !- Lower Limit Value
    4,                       !- Upper Limit Value
    DISCRETE;                !- Numeric Type

ScheduleTypeLimits,
    Zone_Classroom_7419 Thermostat Schedule Type Limits,  !- Name
    0.0,                     !- Lower Limit Value
    4,                       !- Upper Limit Value
    DISCRETE;                !- Numeric Type

ScheduleTypeLimits,
    Zone_Classroom_7410 Thermostat Schedule Type Limits,  !- Name
    0.0,                     !- Lower Limit Value
    4,                       !- Upper Limit Value
    DISCRETE;                !- Numeric Type

ScheduleTypeLimits,
    Zone_Classroom_7411 Thermostat Schedule Type Limits,  !- Name
    0.0,                     !- Lower Limit Value
    4,                       !- Upper Limit Value
    DISCRETE;                !- Numeric Type

ScheduleTypeLimits,
    Zone_Classroom_7412 Thermostat Schedule Type Limits,  !- Name
    0.0,                     !- Lower Limit Value
    4,                       !- Upper Limit Value
    DISCRETE;                !- Numeric Type

ScheduleTypeLimits,
    Zone_Classroom_7413 Thermostat Schedule Type Limits,  !- Name
    0.0,                     !- Lower Limit Value
    4,                       !- Upper Limit Value
    DISCRETE;                !- Numeric Type

ScheduleTypeLimits,
    Zone_Classroom_7414 Thermostat Schedule Type Limits,  !- Name
    0.0,                     !- Lower Limit Value
    4,                       !- Upper Limit Value
    DISCRETE;                !- Numeric Type

ScheduleTypeLimits,
    Zone_Classroom_7418 Thermostat Schedule Type Limits,  !- Name
    0.0,                     !- Lower Limit Value
    4,                       !- Upper Limit Value
    DISCRETE;                !- Numeric Type

ScheduleTypeLimits,
    Zone_Classroom_7415 Thermostat Schedule Type Limits,  !- Name
    0.0,                     !- Lower Limit Value
    4,                       !- Upper Limit Value
    DISCRETE;                !- Numeric Type

ScheduleTypeLimits,
    Zone_Auditorium_7502 Thermostat Schedule Type Limits,  !- Name
    0.0,                     !- Lower Limit Value
    4,                       !- Upper Limit Value
    DISCRETE;                !- Numeric Type

ScheduleTypeLimits,
    Zone_Auditorium_7501 Thermostat Schedule Type Limits,  !- Name
    0.0,                     !- Lower Limit Value
    4,                       !- Upper Limit Value
    DISCRETE;                !- Numeric Type

ScheduleTypeLimits,
    Zone_Auditorium_7508 Thermostat Schedule Type Limits,  !- Name
    0.0,                     !- Lower Limit Value
    4,                       !- Upper Limit Value
    DISCRETE;                !- Numeric Type

ScheduleTypeLimits,
    ActivityLevel 12,        !- Name
    0.0,                     !- Lower Limit Value
    ,                        !- Upper Limit Value
    Continuous,              !- Numeric Type
    activitylevel;           !- Unit Type

ScheduleTypeLimits,
    ActivityLevel 13,        !- Name
    0.0,                     !- Lower Limit Value
    ,                        !- Upper Limit Value
    Continuous,              !- Numeric Type
    activitylevel;           !- Unit Type

ScheduleTypeLimits,
    ActivityLevel 5,         !- Name
    0.0,                     !- Lower Limit Value
    ,                        !- Upper Limit Value
    Continuous,              !- Numeric Type
    activitylevel;           !- Unit Type

ScheduleTypeLimits,
    Always On Discrete Limits,  !- Name
    0.0,                     !- Lower Limit Value
    1,                       !- Upper Limit Value
    Discrete,                !- Numeric Type
    availability;            !- Unit Type

ScheduleTypeLimits,
    Fractional,              !- Name
    0.0,                     !- Lower Limit Value
    1,                       !- Upper Limit Value
    Continuous;              !- Numeric Type

ScheduleTypeLimits,
    Fractional 1,            !- Name
    0.0,                     !- Lower Limit Value
    1,                       !- Upper Limit Value
    Continuous;              !- Numeric Type

ScheduleTypeLimits,
    OnOff,                   !- Name
    0.0,                     !- Lower Limit Value
    1,                       !- Upper Limit Value
    Discrete,                !- Numeric Type
    availability;            !- Unit Type

ScheduleTypeLimits,
    Temperature 11,          !- Name
    ,                        !- Lower Limit Value
    ,                        !- Upper Limit Value
    Continuous,              !- Numeric Type
    temperature;             !- Unit Type

ScheduleTypeLimits,
    Temperature 27,          !- Name
    ,                        !- Lower Limit Value
    ,                        !- Upper Limit Value
    Continuous,              !- Numeric Type
    temperature;             !- Unit Type

ScheduleTypeLimits,
    Temperature 29,          !- Name
    ,                        !- Lower Limit Value
    ,                        !- Upper Limit Value
    Continuous,              !- Numeric Type
    temperature;             !- Unit Type

ScheduleTypeLimits,
    Temperature 3,           !- Name
    ,                        !- Lower Limit Value
    ,                        !- Upper Limit Value
    Continuous,              !- Numeric Type
    temperature;             !- Unit Type

ScheduleTypeLimits,
    Temperature 4,           !- Name
    ,                        !- Lower Limit Value
    ,                        !- Upper Limit Value
    Continuous,              !- Numeric Type
    temperature;             !- Unit Type

ScheduleTypeLimits,
    Temperature 5,           !- Name
    ,                        !- Lower Limit Value
    ,                        !- Upper Limit Value
    Continuous,              !- Numeric Type
    temperature;             !- Unit Type


!-   ===========  ALL OBJECTS IN CLASS: SCHEDULE:DAY:INTERVAL ===========

Schedule:Day:Interval,
    Office Bldg Light Rule 1 Day Schedule,  !- Name
    Fraction,                !- Schedule Type Limits Name
    No,                      !- Interpolate to Timestep
    24:0.0,                  !- Time 1 {hh:mm}
    0.05;                    !- Value Until Time 1

Schedule:Day:Interval,
    Office Bldg Light Default Schedule,  !- Name
    Fraction,                !- Schedule Type Limits Name
    No,                      !- Interpolate to Timestep
    05:0.0,                  !- Time 1 {hh:mm}
    0.05,                    !- Value Until Time 1
    07:0.0,                  !- Time 2 {hh:mm}
    0.1,                     !- Value Until Time 2
    08:0.0,                  !- Time 3 {hh:mm}
    0.3,                     !- Value Until Time 3
    17:0.0,                  !- Time 4 {hh:mm}
    0.9,                     !- Value Until Time 4
    18:0.0,                  !- Time 5 {hh:mm}
    0.7,                     !- Value Until Time 5
    20:0.0,                  !- Time 6 {hh:mm}
    0.5,                     !- Value Until Time 6
    22:0.0,                  !- Time 7 {hh:mm}
    0.3,                     !- Value Until Time 7
    23:0.0,                  !- Time 8 {hh:mm}
    0.1,                     !- Value Until Time 8
    24:0.0,                  !- Time 9 {hh:mm}
    0.05;                    !- Value Until Time 9

Schedule:Day:Interval,
    Office Bldg Light Rule 2 Day Schedule,  !- Name
    Fraction,                !- Schedule Type Limits Name
    No,                      !- Interpolate to Timestep
    06:0.0,                  !- Time 1 {hh:mm}
    0.05,                    !- Value Until Time 1
    08:0.0,                  !- Time 2 {hh:mm}
    0.1,                     !- Value Until Time 2
    14:0.0,                  !- Time 3 {hh:mm}
    0.5,                     !- Value Until Time 3
    17:0.0,                  !- Time 4 {hh:mm}
    0.15,                    !- Value Until Time 4
    24:0.0,                  !- Time 5 {hh:mm}
    0.05;                    !- Value Until Time 5

Schedule:Day:Interval,
    Office Bldg Light Summer Design Day,  !- Name
    Fraction,                !- Schedule Type Limits Name
    No,                      !- Interpolate to Timestep
    24:0.0,                  !- Time 1 {hh:mm}
    1;                       !- Value Until Time 1

Schedule:Day:Interval,
    Office Bldg Light Winter Design Day,  !- Name
    Fraction,                !- Schedule Type Limits Name
    No,                      !- Interpolate to Timestep
    24:0.0,                  !- Time 1 {hh:mm}
    0.0;                     !- Value Until Time 1

Schedule:Day:Interval,
    SecondarySchool Bldg Light Rule 5 Day Schedule,  !- Name
    Fraction,                !- Schedule Type Limits Name
    No,                      !- Interpolate to Timestep
    24:0.0,                  !- Time 1 {hh:mm}
    0.1773;                  !- Value Until Time 1

Schedule:Day:Interval,
    SecondarySchool Bldg Light Default Schedule,  !- Name
    Fraction,                !- Schedule Type Limits Name
    No,                      !- Interpolate to Timestep
    07:0.0,                  !- Time 1 {hh:mm}
    0.1773,                  !- Value Until Time 1
    21:0.0,                  !- Time 2 {hh:mm}
    0.9,                     !- Value Until Time 2
    24:0.0,                  !- Time 3 {hh:mm}
    0.1773;                  !- Value Until Time 3

Schedule:Day:Interval,
    SecondarySchool Bldg Light Rule 3 Day Schedule,  !- Name
    Fraction,                !- Schedule Type Limits Name
    No,                      !- Interpolate to Timestep
    24:0.0,                  !- Time 1 {hh:mm}
    0.1773;                  !- Value Until Time 1

Schedule:Day:Interval,
    SecondarySchool Bldg Light Rule 4 Day Schedule,  !- Name
    Fraction,                !- Schedule Type Limits Name
    No,                      !- Interpolate to Timestep
    08:0.0,                  !- Time 1 {hh:mm}
    0.1773,                  !- Value Until Time 1
    20:0.0,                  !- Time 2 {hh:mm}
    0.5,                     !- Value Until Time 2
    24:0.0,                  !- Time 3 {hh:mm}
    0.1773;                  !- Value Until Time 3

Schedule:Day:Interval,
    SecondarySchool Bldg Light Rule 2 Day Schedule,  !- Name
    Fraction,                !- Schedule Type Limits Name
    No,                      !- Interpolate to Timestep
    07:0.0,                  !- Time 1 {hh:mm}
    0.1773,                  !- Value Until Time 1
    21:0.0,                  !- Time 2 {hh:mm}
    0.9,                     !- Value Until Time 2
    24:0.0,                  !- Time 3 {hh:mm}
    0.1773;                  !- Value Until Time 3

Schedule:Day:Interval,
    SecondarySchool Bldg Light Rule 1 Day Schedule,  !- Name
    Fraction,                !- Schedule Type Limits Name
    No,                      !- Interpolate to Timestep
    24:0.0,                  !- Time 1 {hh:mm}
    0.1773;                  !- Value Until Time 1

Schedule:Day:Interval,
    SecondarySchool Bldg Light Summer Design Day,  !- Name
    Fraction,                !- Schedule Type Limits Name
    No,                      !- Interpolate to Timestep
    07:0.0,                  !- Time 1 {hh:mm}
    0.1773,                  !- Value Until Time 1
    21:0.0,                  !- Time 2 {hh:mm}
    0.9,                     !- Value Until Time 2
    24:0.0,                  !- Time 3 {hh:mm}
    0.1773;                  !- Value Until Time 3

Schedule:Day:Interval,
    SecondarySchool Bldg Light Winter Design Day,  !- Name
    Fraction,                !- Schedule Type Limits Name
    No,                      !- Interpolate to Timestep
    24:0.0,                  !- Time 1 {hh:mm}
    0.1773;                  !- Value Until Time 1

Schedule:Day:Interval,
    SecondarySchool Bldg Occ Rule 5 Day Schedule,  !- Name
    Fraction,                !- Schedule Type Limits Name
    No,                      !- Interpolate to Timestep
    24:0.0,                  !- Time 1 {hh:mm}
    0.0;                     !- Value Until Time 1

Schedule:Day:Interval,
    SecondarySchool Bldg Occ Default Schedule,  !- Name
    Fraction,                !- Schedule Type Limits Name
    No,                      !- Interpolate to Timestep
    08:0.0,                  !- Time 1 {hh:mm}
    0.0,                     !- Value Until Time 1
    16:0.0,                  !- Time 2 {hh:mm}
    0.7,                     !- Value Until Time 2
    21:0.0,                  !- Time 3 {hh:mm}
    0.15,                    !- Value Until Time 3
    24:0.0,                  !- Time 4 {hh:mm}
    0.0;                     !- Value Until Time 4

Schedule:Day:Interval,
    SecondarySchool Bldg Occ Rule 3 Day Schedule,  !- Name
    Fraction,                !- Schedule Type Limits Name
    No,                      !- Interpolate to Timestep
    24:0.0,                  !- Time 1 {hh:mm}
    0.0;                     !- Value Until Time 1

Schedule:Day:Interval,
    SecondarySchool Bldg Occ Rule 4 Day Schedule,  !- Name
    Fraction,                !- Schedule Type Limits Name
    No,                      !- Interpolate to Timestep
    08:0.0,                  !- Time 1 {hh:mm}
    0.0,                     !- Value Until Time 1
    21:0.0,                  !- Time 2 {hh:mm}
    0.15,                    !- Value Until Time 2
    24:0.0,                  !- Time 3 {hh:mm}
    0.0;                     !- Value Until Time 3

Schedule:Day:Interval,
    SecondarySchool Bldg Occ Rule 2 Day Schedule,  !- Name
    Fraction,                !- Schedule Type Limits Name
    No,                      !- Interpolate to Timestep
    08:0.0,                  !- Time 1 {hh:mm}
    0.0,                     !- Value Until Time 1
    16:0.0,                  !- Time 2 {hh:mm}
    0.7,                     !- Value Until Time 2
    21:0.0,                  !- Time 3 {hh:mm}
    0.15,                    !- Value Until Time 3
    24:0.0,                  !- Time 4 {hh:mm}
    0.0;                     !- Value Until Time 4

Schedule:Day:Interval,
    SecondarySchool Bldg Occ Rule 1 Day Schedule,  !- Name
    Fraction,                !- Schedule Type Limits Name
    No,                      !- Interpolate to Timestep
    24:0.0,                  !- Time 1 {hh:mm}
    0.0;                     !- Value Until Time 1

Schedule:Day:Interval,
    SecondarySchool Bldg Occ Summer Design Day,  !- Name
    Fraction,                !- Schedule Type Limits Name
    No,                      !- Interpolate to Timestep
    08:0.0,                  !- Time 1 {hh:mm}
    0.0,                     !- Value Until Time 1
    16:0.0,                  !- Time 2 {hh:mm}
    0.7,                     !- Value Until Time 2
    21:0.0,                  !- Time 3 {hh:mm}
    0.15,                    !- Value Until Time 3
    24:0.0,                  !- Time 4 {hh:mm}
    0.0;                     !- Value Until Time 4

Schedule:Day:Interval,
    SecondarySchool Bldg Occ Winter Design Day,  !- Name
    Fraction,                !- Schedule Type Limits Name
    No,                      !- Interpolate to Timestep
    24:0.0,                  !- Time 1 {hh:mm}
    0.0;                     !- Value Until Time 1

Schedule:Day:Interval,
    SecondarySchool Activity Default Schedule,  !- Name
    ActivityLevel 2,         !- Schedule Type Limits Name
    No,                      !- Interpolate to Timestep
    24:0.0,                  !- Time 1 {hh:mm}
    120;                     !- Value Until Time 1

Schedule:Day:Interval,
    SecondarySchool Activity Summer Design Day,  !- Name
    ActivityLevel 2,         !- Schedule Type Limits Name
    No,                      !- Interpolate to Timestep
    24:0.0,                  !- Time 1 {hh:mm}